I"Î/Users/alfa/Development/code/Module%202/Rails/rails-dynamic-request-readme-web-082817/app/assets/stylesheets/application.css?type=text/css&id=5bc9e1368dc0311adb347603e96ba57c67ca4639b2e15650854def41e4a34d1a:ET