I"é/Users/alfa/Development/code/Module%202/Rails/rails-dynamic-request-readme-web-082817/app/assets/javascripts/application.js?type=application/javascript&pipeline=self&id=776d638ac1a8f6705f4ce2c3eb1b4debe69714723ba53c30035327458ccd45a1:ET