I"Û/Users/alfa/Development/code/Module%202/Rails/rails-dynamic-request-readme-web-082817/app/assets/javascripts/application.js?type=application/javascript&id=48c4678a516b17b0fc6bb02e26ae3f922ed46a4d07c7d7aac40a2b8d756e1eb7:ET