I"Ü/Users/alfa/Development/code/Module%202/Rails/rails-dynamic-request-readme-web-082817/app/assets/stylesheets/application.css?type=text/css&pipeline=self&id=0df0e0a0922c41092f67efa3505f321fbc540e5d44d979a3ce8fa6930624618d:ET