[o:Set:
@hash}I"environment-version:ETTI"environment-paths;TTI"rails-env;TTI"0processors:type=text/css&file_type=text/css;TTI"Šfile-digest:///Users/alfa/Development/code/Module%202/Rails/rails-dynamic-request-readme-web-082817/app/assets/stylesheets/application.css;TTI">processors:type=text/css&file_type=text/css&pipeline=self;TTI"file-digest:///Users/alfa/Development/code/Module%202/Rails/rails-dynamic-request-readme-web-082817/app/assets/stylesheets;TTF